Hello World!
Zeeshan Hussain.
new line..